35
	Energy:      41.3635474
S          2.32959       -1.59361        1.01907
O          6.43118        0.44855        0.84788
N          0.71814       -0.36404       -0.68162
N         -3.91136       -0.67278       -0.14744
N         -2.91838        1.15167        0.94420
N         -2.84141       -1.93169       -1.86124
C          1.82824        0.50674       -0.49509
C         -0.40981       -0.09611       -1.56396
C          2.74619        0.02351        0.36046
C          4.03580        0.68590        0.80127
C         -1.69575       -0.00213       -0.76695
C          0.77428       -1.59094        0.07520
C          1.91494        1.83667       -1.21541
C          5.24976       -0.15173        0.39094
C         -2.81218       -0.86442       -0.92579
C         -1.79443        1.01244        0.19882
C         -3.97396        0.31825        0.77738
C         -5.19918        0.49362        1.61103
H         -0.42670       -0.88263       -2.33615
H         -0.28973        0.85974       -2.11053
H          4.01430        0.78849        1.90722
H          4.17186        1.69831        0.38663
H         -0.07782       -1.62336        0.78627
H          1.90264        1.65891       -2.31079
H          1.04266        2.46328       -0.93742
H          2.81871        2.42907       -1.00198
H          5.28389       -0.27778       -0.71588
H          5.18587       -1.16746        0.83486
H         -0.97248        1.69751        0.36045
H         -2.06022       -2.16292       -2.48462
H         -3.68337       -2.52206       -1.92667
H          6.64187        1.18309        0.21394
H         -5.96421       -0.26782        1.34890
H         -4.93771        0.38479        2.68432
H         -5.62502        1.50414        1.43877
